Version 4.1
SHEET 1 880 680
WIRE 512 -16 -160 -16
WIRE -160 128 -160 -16
WIRE -160 128 -256 128
WIRE -64 128 -160 128
WIRE 48 128 -64 128
WIRE 192 128 128 128
WIRE 352 128 272 128
WIRE -256 208 -256 128
WIRE -64 208 -64 128
WIRE 352 208 352 128
WIRE 352 208 0 208
WIRE 432 208 352 208
WIRE 512 208 512 -16
WIRE 352 240 352 208
WIRE 128 288 -32 288
WIRE 288 288 208 288
WIRE 432 288 432 208
WIRE 512 288 432 288
WIRE -32 464 -32 368
WIRE 144 464 -32 464
WIRE -256 496 -256 288
WIRE 144 496 144 464
WIRE 144 496 -256 496
WIRE 352 496 352 336
WIRE 352 496 144 496
FLAG 144 496 0
SYMBOL res 144 112 R90
WINDOW 0 0 56 VBottom 2
WINDOW 3 32 56 VTop 2
SYMATTR InstName R1
SYMATTR Value 800
SYMBOL ind 176 144 R270
WINDOW 0 32 56 VTop 2
WINDOW 3 5 56 VBottom 2
SYMATTR InstName L1
SYMATTR Value 200mH
SYMATTR SpiceLine Rser=1m
SYMBOL npn 288 240 R0
SYMATTR InstName Q1
SYMATTR Value 2N2222
SYMBOL res 224 272 R90
WINDOW 0 0 56 VBottom 2
WINDOW 3 32 56 VTop 2
SYMATTR InstName R2
SYMATTR Value 1k
SYMBOL voltage -32 272 R0
WINDOW 3 -3 116 Left 2
WINDOW 123 0 0 Left 0
WINDOW 39 0 0 Left 0
SYMATTR InstName V1
SYMATTR Value PULSE(0 5 1m 1u 1u 10m 20m)
SYMBOL voltage -256 192 R0
WINDOW 123 0 0 Left 0
WINDOW 39 0 0 Left 0
SYMATTR InstName V2
SYMATTR Value 24V
SYMBOL diode 0 192 R90
WINDOW 0 0 32 VBottom 2
WINDOW 3 32 32 VTop 2
SYMATTR InstName D1
SYMATTR Value 1N4148
SYMBOL res 496 192 R0
SYMATTR InstName R3
SYMATTR Value 576
TEXT -280 600 Left 2 !.tran 0 50m 0 10u
