Version 4.1
SHEET 1 1156 712
WIRE -16 -16 -64 -16
WIRE 192 -16 48 -16
WIRE 304 -16 272 -16
WIRE -64 128 -64 -16
WIRE -64 128 -256 128
WIRE 48 128 -64 128
WIRE 192 128 128 128
WIRE 304 128 304 -16
WIRE 304 128 272 128
WIRE 352 128 304 128
WIRE -256 208 -256 128
WIRE -64 208 -64 128
WIRE 304 208 304 128
WIRE 304 208 0 208
WIRE 352 240 352 208
WIRE 16 288 -144 288
WIRE 160 288 96 288
WIRE 272 288 160 288
WIRE 304 288 272 288
WIRE 160 304 160 288
WIRE 272 336 272 288
WIRE 352 352 352 304
WIRE 528 352 352 352
WIRE 528 368 528 352
WIRE 672 368 528 368
WIRE 1024 368 800 368
WIRE 1024 384 1024 368
WIRE 1104 384 1024 384
WIRE 160 400 160 384
WIRE 672 400 528 400
WIRE 848 400 800 400
WIRE 864 400 848 400
WIRE 672 432 608 432
WIRE 1024 432 1024 384
WIRE 1024 432 800 432
WIRE 352 448 352 432
WIRE 528 448 528 400
WIRE 528 448 352 448
WIRE 608 448 608 432
WIRE 1024 448 1024 432
WIRE -256 496 -256 288
WIRE -144 496 -144 368
WIRE -144 496 -256 496
WIRE 144 496 -144 496
WIRE 160 496 160 464
WIRE 160 496 144 496
WIRE 208 496 160 496
WIRE 272 496 272 416
WIRE 272 496 208 496
WIRE 352 496 352 448
WIRE 352 496 272 496
WIRE 672 528 672 432
WIRE 768 528 672 528
WIRE 1104 528 1104 384
WIRE 1104 528 832 528
WIRE 208 592 208 496
WIRE 608 592 608 528
WIRE 608 592 208 592
FLAG 144 496 0
FLAG 1024 448 0
FLAG 848 400 Vout
SYMBOL res 144 112 R90
WINDOW 0 0 56 VBottom 2
WINDOW 3 32 56 VTop 2
SYMATTR InstName R1
SYMATTR Value 1440
SYMBOL ind 176 144 R270
WINDOW 0 32 56 VTop 2
WINDOW 3 5 56 VBottom 2
SYMATTR InstName L1
SYMATTR Value 200mH
SYMATTR SpiceLine Rser=1m
SYMBOL res 112 272 R90
WINDOW 0 0 56 VBottom 2
WINDOW 3 32 56 VTop 2
SYMATTR InstName R2
SYMATTR Value 100
SYMBOL voltage -144 272 R0
WINDOW 3 -222 126 Left 2
WINDOW 123 0 0 Left 0
WINDOW 39 0 0 Left 0
SYMATTR Value PULSE(0 {Vtetik} 1m 1u 1u 10m 20m)
SYMATTR InstName V1
SYMBOL voltage -256 192 R0
WINDOW 123 0 0 Left 0
WINDOW 39 0 0 Left 0
SYMATTR InstName V2
SYMATTR Value 24V
SYMBOL diode 0 192 R90
WINDOW 0 0 32 VBottom 2
WINDOW 3 32 32 VTop 2
SYMATTR InstName D1
SYMATTR Value 1N5819
SYMBOL nmos 304 208 R0
SYMATTR InstName M1
SYMATTR Value 2N7002
SYMBOL res 256 320 R0
SYMATTR InstName R3
SYMATTR Value 10k
SYMBOL LED -16 0 R270
WINDOW 0 72 32 VTop 2
WINDOW 3 0 32 VBottom 2
SYMATTR InstName D2
SYMBOL res 176 0 R270
WINDOW 0 32 56 VTop 2
WINDOW 3 0 56 VBottom 2
SYMATTR InstName R4
SYMATTR Value 3.3k
SYMBOL res 336 112 R0
SYMATTR InstName R5
SYMATTR Value {Rdeger}
SYMBOL res 144 288 R0
SYMATTR InstName R6
SYMATTR Value 10µ
SYMBOL cap 144 400 R0
SYMATTR InstName C1
SYMATTR Value 100n
SYMBOL res 336 336 R0
SYMATTR InstName R7
SYMATTR Value 2
SYMBOL voltage 608 432 R0
WINDOW 123 0 0 Left 0
WINDOW 39 0 0 Left 0
SYMATTR InstName V3
SYMATTR Value 3.3
SYMBOL cap 832 512 R90
WINDOW 0 0 32 VBottom 2
WINDOW 3 32 32 VTop 2
SYMATTR InstName C2
SYMATTR Value 100n
SYMBOL INA199A1 736 400 R0
SYMATTR InstName U2
TEXT -280 600 Left 2 !.tran 0 50m 0 10u
TEXT 736 88 Left 2 !.step param Rdeger 100 500 50
TEXT 840 184 Left 2 !.include ina199a1.lib
TEXT 872 -24 Left 2 !.step param Vtetik 2 5 1
